*Heading
** Job name: TetraQuadratic Model name: Model-1
** Generated by: Abaqus/CAE Student Edition 6.14-2
*Preprint, echo=NO, model=NO, history=NO, contact=NO
**
** PARTS
**
*Part, name=Part-1
*Node
      1,         -25.,         -20.,          50.
      2,         -25.,          25.,          50.
      3,         -25.,          25.,           0.
      4,         -25.,         -20.,           0.
      5,          25.,          25.,          50.
      6,          25.,          25.,           0.
      7,          25.,         -20.,           0.
      8,          25.,         -20.,          50.
      9,         -25.,          2.5,          50.
     10,         -25.,          25.,   33.3333321
     11,         -25.,          25.,    16.666666
     12,         -25.,          2.5,           0.
     13,         -25.,         -20.,    16.666666
     14,         -25.,         -20.,   33.3333321
     15,  -8.33333302,          25.,          50.
     16,   8.33333302,          25.,          50.
     17,          25.,          25.,   33.3333321
     18,          25.,          25.,    16.666666
     19,   8.33333302,          25.,           0.
     20,  -8.33333302,          25.,           0.
** ... 328 like lines cut
*Element, type=C3D10
  1,  45,  44,   7,  21,  64,  63,  62,  66,  65,  67
  2,  46,  22,  45,  39,  70,  69,  68,  72,  71,  73
  3,  47,  48,  49,  35,  76,  75,  74,  78,  77,  79
  4,  47,  11,  48,  30,  81,  80,  76,  83,  82,  84
  5,  48,  50,  12,  35,  87,  86,  85,  77,  88,  89
  6,  48,  35,  12,   3,  77,  89,  85,  91,  90,  92
  7,  48,   3,  20,  35,  91,  94,  93,  77,  90,  95
  8,  47,  51,  29,  30,  98,  97,  96,  83,  99, 100
  9,  46,  50,  47,  35, 103, 102, 101, 104,  88,  78
 10,  52,  53,  18,  34, 107, 106, 105, 109, 108, 110
 11,  46,  52,  36,  49, 113, 112, 111, 115, 114, 116
 12,  52,  21,   6,  18, 119, 118, 117, 105, 120, 121
 13,  52,  21,  19,   6, 119, 123, 122, 117, 118, 124
 14,  52,  19,  49,  34, 122, 125, 114, 109, 126, 127
 15,  54,  42,  41,  55, 130, 129, 128, 132, 131, 133
 16,  47,  55,  53,  31, 136, 135, 134, 138, 137, 139
 17,  55,  15,  56,  42, 142, 141, 140, 131, 143, 144
 18,  55,  57,  16,  41, 147, 146, 145, 133, 148, 149
 19,  55,  15,  41,  16, 142, 150, 133, 145, 151, 149
 20,  55,  57,  53,  32, 147, 152, 135, 154, 153, 155
** ... 165 like lines cut
*Nset, nset=Set-1, generate
   1,  348,    1
*Elset, elset=Set-1, generate
   1,  185,    1
** Section: Section-1
*Solid Section, elset=Set-1, material=Material-1
,
*End Part
**  
**
** ASSEMBLY
**
*Assembly, name=Assembly
**  
*Instance, name=Part-1-1, part=Part-1
*End Instance
**  
*End Assembly
** 
** MATERIALS
** 
*Material, name=Material-1
*Elastic
1.,0.
** ----------------------------------------------------------------
** 
** STEP: Step-1
** 
*Step, name=Step-1, nlgeom=NO
*Static
1., 1., 1e-05, 1.
** 
** OUTPUT REQUESTS
** 
*Restart, write, frequency=0
** 
** FIELD OUTPUT: F-Output-1
** 
*Output, field, variable=PRESELECT
** 
** HISTORY OUTPUT: H-Output-1
** 
*Output, history, variable=PRESELECT
*End Step
