*Heading
** Job name: TetraLinear Model name: Model-1
** Generated by: Abaqus/CAE Student Edition 6.14-2
*Preprint, echo=NO, model=NO, history=NO, contact=NO
**
** PARTS
**
*Part, name=Part-1
*Node
      1,         -25.,         -20.,          50.
      2,         -25.,          25.,          50.
      3,         -25.,          25.,           0.
      4,         -25.,         -20.,           0.
      5,          25.,          25.,          50.
      6,          25.,          25.,           0.
      7,          25.,         -20.,           0.
      8,          25.,         -20.,          50.
      9,         -25.,          2.5,          50.
     10,         -25.,          25.,   33.3333321
     11,         -25.,          25.,    16.666666
     12,         -25.,          2.5,           0.
     13,         -25.,         -20.,    16.666666
     14,         -25.,         -20.,   33.3333321
     15,  -8.33333302,          25.,          50.
     16,   8.33333302,          25.,          50.
     17,          25.,          25.,   33.3333321
     18,          25.,          25.,    16.666666
     19,   8.33333302,          25.,           0.
     20,  -8.33333302,          25.,           0.
** ... 41 like lines cut
*Element, type=C3D4
  1, 45, 44,  7, 21
  2, 46, 22, 45, 39
  3, 47, 48, 49, 35
  4, 47, 11, 48, 30
  5, 48, 50, 12, 35
  6, 48, 35, 12,  3
  7, 48,  3, 20, 35
  8, 47, 51, 29, 30
  9, 46, 50, 47, 35
 10, 52, 53, 18, 34
 11, 46, 52, 36, 49
 12, 52, 21,  6, 18
 13, 52, 21, 19,  6
 14, 52, 19, 49, 34
 15, 54, 42, 41, 55
 16, 47, 55, 53, 31
 17, 55, 15, 56, 42
 18, 55, 57, 16, 41
 19, 55, 15, 41, 16
 20, 55, 57, 53, 32
** ... 165 like lines cut
*Nset, nset=Set-1, generate
  1,  61,   1
*Elset, elset=Set-1, generate
   1,  185,    1
** Section: Section-1
*Solid Section, elset=Set-1, material=Material-1
,
*End Part
**  
**
** ASSEMBLY
**
*Assembly, name=Assembly
**  
*Instance, name=Part-1-1, part=Part-1
*End Instance
**  
*End Assembly
** 
** MATERIALS
** 
*Material, name=Material-1
*Elastic
1.,0.
** ----------------------------------------------------------------
** 
** STEP: Step-1
** 
*Step, name=Step-1, nlgeom=NO
*Static
1., 1., 1e-05, 1.
** 
** OUTPUT REQUESTS
** 
*Restart, write, frequency=0
** 
** FIELD OUTPUT: F-Output-1
** 
*Output, field, variable=PRESELECT
** 
** HISTORY OUTPUT: H-Output-1
** 
*Output, history, variable=PRESELECT
*End Step
